<?xml version="1.0" encoding="UTF-8"?>

<vehicleDefinitions xmlns="http://www.matsim.org/files/dtd"
 xmlns:xsi="http://www.w3.org/2001/XMLSchema-instance"
 xsi:schemaLocation="http://www.matsim.org/files/dtd http://www.matsim.org/files/dtd/vehicleDefinitions_v1.0.xsd">
	<vehicleType id="defaultVehicleType">
		<description>
			BEGIN_EMISSIONSPASSENGER_CAR;average;average;averageEND_EMISSIONS
		</description>
		<capacity>
			<seats persons="4"/>
		</capacity>
		<length meter="7.5"/>
		<width meter="1.0"/>
		
		<accessTime secondsPerPerson="1.0"/>
		<egressTime secondsPerPerson="1.0"/>
		<doorOperation mode="serial"/>
		<passengerCarEquivalents pce="1.0"/>
	</vehicleType>
	<vehicleType id="car_petrol">
		<description>
			BEGIN_EMISSIONSPASSENGER_CAR;petrol (4S);&gt;=2L;PC-P-Euro-1END_EMISSIONS
		</description>
		<length meter="7.5"/>
		<width meter="1.0"/>
		
		<accessTime secondsPerPerson="1.0"/>
		<egressTime secondsPerPerson="1.0"/>
		<doorOperation mode="serial"/>
	</vehicleType>
	<vehicleType id="car_diesel">
		<description>
			BEGIN_EMISSIONSPASSENGER_CAR;diesel;&lt;1,4L;PC-D-Euro-3END_EMISSIONS
		</description>
		<length meter="7.5"/>
		<width meter="1.0"/>
		
		<accessTime secondsPerPerson="1.0"/>
		<egressTime secondsPerPerson="1.0"/>
		<doorOperation mode="serial"/>
	</vehicleType>
	<vehicleType id="truck">
		<description>
			BEGIN_EMISSIONSHEAVY_GOODS_VEHICLE;average;average;averageEND_EMISSIONS
		</description>
		<length meter="7.5"/>
		<width meter="1.0"/>
		
		<accessTime secondsPerPerson="1.0"/>
		<egressTime secondsPerPerson="1.0"/>
		<doorOperation mode="serial"/>
	</vehicleType>
</vehicleDefinitions>
